code/logs/opf_solved_case.m
function mpc = /Users/pekap/Desktop/matlab/OOP_grid/code/logs/opf_solved_case

%% MATPOWER Case Format : Version 2
mpc.version = '2';

%%-----  Power Flow Data  -----%%
%% system MVA base
mpc.baseMVA = 100;

%% bus data
%	bus_i	type	Pd	Qd	Gs	Bs	area	Vm	Va	baseKV	zone	Vmax	Vmin	lam_P	lam_Q	mu_Vmax	mu_Vmin
mpc.bus = [
	1	1	90	49	0	0	1	1.0284	26.181186	115	1	1.06	0.94	40.0262	0.0000	0.0000	0.0000;
	2	1	56	15	0	0	1	1.0354	27.874853	115	1	1.06	0.94	40.0262	0.0000	0.0000	0.0000;
	3	1	20	0	0	0	1	0.9971	26.875345	230	1	1.06	0.94	40.0262	0.0000	0.0000	0.0000;
	4	1	0	0	0	0	1	1.0308	24.574153	345	1	1.06	0.94	40.0262	0.0000	0.0000	0.0000;
	5	1	353	130	0	0	1	1.0191	24.802962	115	1	1.06	0.94	40.0262	0.0000	0.0000	0.0000;
	6	1	120	41	0	0	1	1.0312	27.111065	115	1	1.06	0.94	40.0262	0.0000	0.0000	0.0000;
	7	1	0	0	0	0	1	0.9934	26.482757	230	1	1.06	0.94	40.0262	0.0000	0.0000	0.0000;
	8	2	63	14	0	0	1	1.0153	21.901198	115	1	1.06	0.94	40.0262	0.0000	0.0000	0.0000;
	9	1	96	43	0	0	1	1.0034	22.757836	115	1	1.06	0.94	40.0262	0.0000	0.0000	0.0000;
	10	2	153	33	0	0	1	1.0205	21.442829	230	1	1.06	0.94	40.0262	0.0000	0.0000	0.0000;
	11	1	83	21	0	0	1	1.0057	22.338859	115	1	1.06	0.94	40.0262	0.0000	0.0000	0.0000;
	12	1	0	0	0	0	1	0.9974	25.515631	230	1	1.06	0.94	40.0262	0.0000	0.0000	0.0000;
	13	1	58	10	0	0	1	0.9977	19.456123	115	1	1.06	0.94	40.0262	0.0000	0.0000	0.0000;
	14	1	160	60	0	0	1	0.9991	13.784475	115	1	1.06	0.94	40.0262	0.0000	0.0000	0.0000;
	15	1	126.7	23	0	0	1	1.0343	9.5180293	115	1	1.06	0.94	40.0262	0.0000	0.0000	0.0000;
	16	1	0	0	0	0	1	1.0315	15.829623	345	1	1.06	0.94	40.0262	0.0000	0.0000	0.0000;
	17	1	561	220	0	0	1	1.0649	5.409541	115	1	1.06	0.94	40.0262	0.0000	0.0000	0.0000;
	18	1	0	0	0	0	1	0.982	21.145759	230	1	1.06	0.94	40.0262	0.0000	0.0000	0.0000;
	19	2	605	120	0	0	1	1.001	17.703259	115	1	1.06	0.94	40.0262	0.0000	0.0000	0.0000;
	20	1	77	1	0	0	1	0.9752	21.855145	230	1	1.06	0.94	40.0262	0.0000	0.0000	0.0000;
	21	1	81	23	0	0	1	0.9963	18.053059	115	1	1.06	0.94	40.0262	0.0000	0.0000	0.0000;
	22	1	21	7	0	0	1	1.0501	24.381121	115	1	1.06	0.94	40.0262	0.0000	0.0000	0.0000;
	23	1	0	0	0	0	1	1.0057	26.48115	230	1	1.06	0.94	40.0262	0.0000	0.0000	0.0000;
	24	1	45	12	0	0	1	1.0234	21.654748	115	1	1.06	0.94	40.0262	0.0000	0.0000	0.0000;
	25	1	28	9	0	0	1	0.9986	18.521951	115	1	1.06	0.94	40.0262	0.0000	0.0000	0.0000;
	26	1	69	13	0	0	1	0.975	15.317233	115	1	1.06	0.94	40.0262	0.0000	0.0000	0.0000;
	27	1	55	6	0	0	1	1.0244	2.1532764	115	1	1.06	0.94	40.0262	0.0000	0.0000	0.0000;
	28	1	0	0	0	0	1	1.0414	8.5466055	345	1	1.06	0.94	40.0262	0.0000	0.0000	0.0000;
	29	1	0	0	0	0	1	0.9757	-7.126003	115	1	1.06	0.94	40.0262	0.0000	0.0000	0.0000;
	30	1	0	0	0	0	1	1.0011	-4.1693285	230	1	1.06	0.94	40.0262	0.0000	0.0000	0.0000;
	31	1	85	32	0	0	1	1.0201	1.5033389	115	1	1.06	0.94	40.0262	0.0000	0.0000	0.0000;
	32	1	155	18	0	0	1	1.0202	1.3903336	115	1	1.06	0.94	40.0262	0.0000	0.0000	0.0000;
	33	1	0	0	0	0	1	1.0535	11.19432	345	1	1.06	0.94	40.0262	0.0000	0.0000	0.0000;
	34	1	46	-21	0	0	1	1.0216	1.2256699	115	1	1.06	0.94	40.0262	0.0000	0.0000	0.0000;
	35	1	86	0	0	0	1	1.0292	3.253916	115	1	1.06	0.94	40.0262	0.0000	0.0000	0.0000;
	36	1	0	0	0	0	1	1.0448	9.3584568	345	1	1.06	0.94	40.0262	0.0000	0.0000	0.0000;
	37	1	39	9	0	0	1	1.0006	-1.0057829	115	1	1.06	0.94	40.0262	0.0000	0.0000	0.0000;
	38	1	195	29	0	0	1	1.0086	-0.32299112	115	1	1.06	0.94	40.0262	0.0000	0.0000	0.0000;
	39	1	0	0	0	0	1	1.0215	2.8481145	230	1	1.06	0.94	40.0262	0.0000	0.0000	0.0000;
	40	1	0	0	0	0	1	1.0344	5.592251	345	1	1.06	0.94	40.0262	0.0000	0.0000	0.0000;
	41	1	58	11.8	0	0	1	0.9777	-5.5045527	115	1	1.06	0.94	40.0262	0.0000	0.0000	0.0000;
	42	1	41	19	0	0	1	1.0019	-0.30954916	115	1	1.06	0.94	40.0262	0.0000	0.0000	0.0000;
	43	1	92	26	0	0	1	1.0475	-0.009293478	115	1	1.06	0.94	40.0262	0.0000	0.0000	0.0000;
	44	1	-5	5	0	0	1	1.0253	1.513817	115	1	1.06	0.94	40.0262	0.0000	0.0000	0.0000;
	45	1	61	28	0	0	1	0.9979	0.83658259	115	1	1.06	0.94	40.0262	0.0000	0.0000	0.0000;
	46	1	69	3	0	0	1	0.9959	-1.6819187	115	1	1.06	0.94	40.0262	0.0000	0.0000	0.0000;
	47	1	10	1	0	0	1	1.005	-0.061517815	115	1	1.06	0.94	40.0262	0.0000	0.0000	0.0000;
	48	1	22	10	0	0	1	1.015	3.1355639	115	1	1.06	0.94	40.0262	0.0000	0.0000	0.0000;
	49	1	98	20	0	0	1	1.0335	11.005068	115	1	1.06	0.94	40.0262	0.0000	0.0000	0.0000;
	50	1	14	1	0	0	1	0.9918	12.78557	115	1	1.06	0.94	40.0262	0.0000	0.0000	0.0000;
	51	1	218	106	0	0	1	0.9789	13.57279	115	1	1.06	0.94	40.0262	0.0000	0.0000	0.0000;
	52	1	0	0	0	0	1	1.0246	9.0491505	230	1	1.06	0.94	40.0262	0.0000	0.0000	0.0000;
	53	1	227	110	0	0	1	0.9906	15.590162	115	1	1.06	0.94	40.0262	0.0000	0.0000	0.0000;
	54	1	0	0	0	0	1	1.016	18.880061	230	1	1.06	0.94	40.0262	0.0000	0.0000	0.0000;
	55	2	70	30	0	0	1	0.9583	3.3780891	115	1	1.06	0.94	40.0262	0.0000	0.0000	0.0000;
	56	1	0	0	0	0	1	0.948	7.4974942	230	1	1.06	0.94	40.0262	0.0000	0.0000	0.0000;
	57	1	0	0	0	0	1	0.963	-7.726146	115	1	1.06	0.94	40.0262	0.0000	0.0000	0.0000;
	58	1	56	20	0	0	1	0.9513	-15.46921	115	1	1.06	0.94	40.0262	0.0000	0.0000	0.0000;
	59	1	116	38	0	0	1	0.9793	-10.650635	115	1	1.06	0.94	40.0262	0.0000	0.0000	0.0000;
	60	1	57	19	0	0	1	0.9696	-8.7424935	115	1	1.06	0.94	40.0262	0.0000	0.0000	0.0000;
	61	1	224	71	0	0	1	0.9775	-7.3308836	115	1	1.06	0.94	40.0262	0.0000	0.0000	0.0000;
	62	1	0	0	0	0	1	0.9964	-3.8134696	230	1	1.06	0.94	40.0262	0.0000	0.0000	0.0000;
	63	2	208	107	0	0	1	0.9632	-8.0379461	115	1	1.06	0.94	40.0262	0.0000	0.0000	0.0000;
	64	1	74	28	0	0	1	0.9837	-6.2800052	115	1	1.06	0.94	40.0262	0.0000	0.0000	0.0000;
	65	1	0	0	0	0	1	0.99	-5.3955871	115	1	1.06	0.94	40.0262	0.0000	0.0000	0.0000;
	66	1	48	14	0	0	1	0.982	-6.4194119	115	1	1.06	0.94	40.0262	0.0000	0.0000	0.0000;
	67	1	28	7	0	0	1	0.9872	-6.0031751	115	1	1.06	0.94	40.0262	0.0000	0.0000	0.0000;
	68	1	0	0	0	0	1	1.034	-0.21809371	345	1	1.06	0.94	40.0262	0.0000	0.0000	0.0000;
	69	2	37	13	0	0	1	1.025	1.5862716	115	1	1.06	0.94	40.0262	0.0000	0.0000	0.0000;
	70	1	0	0	0	0	1	0.9872	0.64179919	230	1	1.06	0.94	40.0262	0.0000	0.0000	0.0000;
	71	1	0	0	0	0	1	0.9909	4.2426927	230	1	1.06	0.94	40.0262	0.0000	0.0000	0.0000;
	72	1	0	0	0	0	1	0.9921	11.349935	230	1	1.06	0.94	40.0262	0.0000	0.0000	0.0000;
	73	1	0	0	0	0	1	1.0151	-2.4708133	230	1	1.06	0.94	40.0262	0.0000	0.0000	0.0000;
	74	1	44.2	0	0	0	1	1.0317	5.7456657	115	1	1.06	0.94	40.0262	0.0000	0.0000	0.0000;
	75	1	66	0	0	0	1	1.0272	3.9101602	115	1	1.06	0.94	40.0262	0.0000	0.0000	0.0000;
	76	2	17.4	0	0	0	1	1.052	8.9367299	115	1	1.06	0.94	40.0262	0.0000	0.0000	0.0000;
	77	2	15.8	0	0	0	1	1.052	11.099473	115	1	1.06	0.94	40.0262	0.0000	0.0000	0.0000;
	78	1	60.3	0	0	0	1	0.993	9.2327472	115	1	1.06	0.94	40.0262	0.0000	0.0000	0.0000;
	79	1	39.9	0	0	0	1	1.0183	4.8318934	115	1	1.06	0.94	40.0262	0.0000	0.0000	0.0000;
	80	2	66.7	0	0	0	1	1	3.3850894	115	1	1.06	0.94	40.0262	0.0000	0.0000	0.0000;
	81	1	83.5	0	0	0	1	0.9894	-2.058871	115	1	1.06	0.94	40.0262	0.0000	0.0000	0.0000;
	82	1	0	0	0	0	1	1.006	3.6090751	115	1	1.06	0.94	40.0262	0.0000	0.0000	0.0000;
	83	1	77.8	0	0	0	1	1.0008	2.8653291	115	1	1.06	0.94	40.0262	0.0000	0.0000	0.0000;
	84	1	32	0	0	0	1	1.0288	5.2824079	115	1	1.06	0.94	40.0262	0.0000	0.0000	0.0000;
	85	1	8.6	0	0	0	1	0.9958	0.98613155	115	1	1.06	0.94	40.0262	0.0000	0.0000	0.0000;
	86	1	49.6	0	0	0	1	1.0223	4.1435366	115	1	1.06	0.94	40.0262	0.0000	0.0000	0.0000;
	87	1	4.6	0	0	0	1	1.0095	0.69359197	115	1	1.06	0.94	40.0262	0.0000	0.0000	0.0000;
	88	2	112.1	0	0	0	1	0.99	-2.0116588	115	1	1.06	0.94	40.0262	0.0000	0.0000	0.0000;
	89	1	30.7	0	0	0	1	0.9749	-7.6078645	115	1	1.06	0.94	40.0262	0.0000	0.0000	0.0000;
	90	1	63	0	0	0	1	0.973	-6.3981726	115	1	1.06	0.94	40.0262	0.0000	0.0000	0.0000;
	91	1	19.6	0	0	0	1	0.9725	-9.8814745	115	1	1.06	0.94	40.0262	0.0000	0.0000	0.0000;
	92	1	26.2	0	0	0	1	0.97	-7.3758344	115	1	1.06	0.94	40.0262	0.0000	0.0000	0.0000;
	93	1	18.2	0	0	0	1	0.9747	-9.7719411	115	1	1.06	0.94	40.0262	0.0000	0.0000	0.0000;
	94	1	0	0	0	0	1	0.9603	8.3664126	115	2	1.06	0.94	40.0262	0.0000	0.0000	0.0000;
	95	1	0	0	0	0	1	1.0249	9.5151725	115	2	1.06	0.94	40.0262	0.0000	0.0000	0.0000;
	96	1	0	0	0	325	1	0.9348	17.033098	115	2	1.06	0.94	40.0262	0.0000	0.0000	0.0000;
	97	1	14.1	650	0	0	1	0.9298	17.54887	115	2	1.06	0.94	40.0262	0.0000	0.0000	0.0000;
	98	2	0	0	0	0	1	1.0435	26.805909	115	2	1.06	0.94	40.0262	0.0000	0.0000	0.0000;
	99	1	777	215	0	55	1	0.9584	13.106469	115	2	1.06	0.94	40.0262	0.0000	0.0000	0.0000;
	100	1	535	55	0	0	1	0.9871	9.1084752	115	2	1.06	0.94	40.0262	0.0000	0.0000	0.0000;
	101	1	229.1	11.8	0	0	1	0.9728	7.8390181	115	2	1.06	0.94	40.0262	0.0000	0.0000	0.0000;
	102	1	78	1.4	0	0	1	1.0006	4.8471591	115	2	1.06	0.94	40.0262	0.0000	0.0000	0.0000;
	103	2	276.4	59.3	0	0	1	1.0233	8.919476	115	2	1.06	0.94	40.0262	0.0000	0.0000	0.0000;
	104	2	514.8	82.7	0	0	1	1.0103	4.0100701	115	2	1.06	0.94	40.0262	0.0000	0.0000	0.0000;
	105	1	57.9	5.1	0	0	1	0.9978	9.4837791	115	2	1.06	0.94	40.0262	0.0000	0.0000	0.0000;
	106	1	380.8	37	0	0	1	1.0001	11.763294	230	2	1.06	0.94	40.0262	0.0000	0.0000	0.0000;
	107	1	0	0	0	0	1	1.0024	17.225601	230	2	1.06	0.94	40.0262	0.0000	0.0000	0.0000;
	108	1	0	0	0	0	1	1.0028	17.581143	230	2	1.06	0.94	40.0262	0.0000	0.0000	0.0000;
	109	1	0	0	0	0	1	1.0191	26.57168	230	2	1.06	0.94	40.0262	0.0000	0.0000	0.0000;
	110	1	0	0	0	0	1	0.9861	26.507656	230	2	1.06	0.94	40.0262	0.0000	0.0000	0.0000;
	111	1	0	0	0	0	1	1.0045	24.072481	230	2	1.06	0.94	40.0262	0.0000	0.0000	0.0000;
	112	1	0	0	0	0	1	1.002	16.719183	230	2	1.06	0.94	40.0262	0.0000	0.0000	0.0000;
	113	1	0	0	0	0	1	1.022	14.63579	230	2	1.06	0.94	40.0262	0.0000	0.0000	0.0000;
	114	1	169.2	41.6	0	0	1	1.0193	16.075302	230	2	1.06	0.94	40.0262	0.0000	0.0000	0.0000;
	115	1	55.2	18.2	0	0	1	1.0476	25.175748	230	2	1.06	0.94	40.0262	0.0000	0.0000	0.0000;
	116	1	273.6	99.8	0	0	1	1.0471	21.562934	230	2	1.06	0.94	40.0262	0.0000	0.0000	0.0000;
	117	2	1019.2	135.2	0	0	1	1.055	16.191366	230	2	1.06	0.94	40.0262	0.0000	0.0000	0.0000;
	118	1	595	83.3	0	0	1	1.0117	19.308259	115	2	1.06	0.94	40.0262	0.0000	0.0000	0.0000;
	119	1	387.7	114.7	0	0	1	1.043	19.439201	230	2	1.06	0.94	40.0262	0.0000	0.0000	0.0000;
	120	2	145	58	0	0	1	1.051	23.542873	230	2	1.06	0.94	40.0262	0.0000	0.0000	0.0000;
	121	1	56.5	24.5	0	0	1	1.0155	19.704093	230	2	1.06	0.94	40.0262	0.0000	0.0000	0.0000;
	122	2	89.5	35.5	0	0	1	1.0435	26.639384	230	2	1.06	0.94	40.0262	0.0000	0.0000	0.0000;
	123	1	0	0	0	0	1	1.016	19.481559	230	2	1.06	0.94	40.0262	0.0000	0.0000	0.0000;
	124	1	24	14	0	0	1	1.0081	22.391835	230	2	1.06	0.94	40.0262	0.0000	0.0000	0.0000;
	125	2	0	0	0	0	1	1.0528	27.716323	230	2	1.06	0.94	40.0262	0.0000	0.0000	0.0000;
	126	2	0	0	0	0	1	1.0528	32.155508	230	2	1.06	0.94	40.0262	0.0000	0.0000	0.0000;
	127	1	63	25	0	0	1	1.0577	22.750712	230	2	1.06	0.94	40.0262	0.0000	0.0000	0.0000;
	128	2	0	0	0	0	1	1.0735	28.397746	230	2	1.06	0.94	40.0262	0.0000	0.0000	0.0000;
	129	1	0	0	0	0	1	0.9869	26.774124	230	2	1.06	0.94	40.0262	0.0000	0.0000	0.0000;
	130	1	0	0	0	0	1	1.0048	25.045812	230	2	1.06	0.94	40.0262	0.0000	0.0000	0.0000;
	131	2	17	9	0	0	1	1.0535	33.689262	230	2	1.06	0.94	40.0262	0.0000	0.0000	0.0000;
	132	2	0	0	0	0	1	1.0435	35.088039	230	2	1.06	0.94	40.0262	0.0000	0.0000	0.0000;
	133	1	70	5	0	34.5	1	0.9663	24.547936	115	2	1.06	0.94	40.0262	0.0000	0.0000	0.0000;
	134	1	200	50	0	0	1	1.0177	30.936059	230	2	1.06	0.94	40.0262	0.0000	0.0000	0.0000;
	135	2	75	50	0	0	1	0.963	29.457551	115	2	1.06	0.94	40.0262	0.0000	0.0000	0.0000;
	136	1	123.5	-24.3	0	0	1	0.9845	10.334282	230	2	1.06	0.94	40.0262	0.0000	0.0000	0.0000;
	137	1	0	0	0	0	1	0.9987	10.969322	230	2	1.06	0.94	40.0262	0.0000	0.0000	0.0000;
	138	1	33	16.5	0	0	1	0.9867	12.448461	230	2	1.06	0.94	40.0262	0.0000	0.0000	0.0000;
	139	1	0	0	0	0	1	0.9998	9.8812523	230	2	1.06	0.94	40.0262	0.0000	0.0000	0.0000;
	140	1	35	15	0	0	1	1.036	33.307883	230	2	1.06	0.94	40.0262	0.0000	0.0000	0.0000;
	141	1	85	24	0	0	1	0.9918	42.707653	230	2	1.06	0.94	40.0262	0.0000	0.0000	0.0000;
	142	1	0	0.4	0	0	1	1.041	26.860986	230	2	1.06	0.94	40.0262	0.0000	0.0000	0.0000;
	143	1	0	0	0	-212	1	0.9839	33.952649	230	2	1.06	0.94	40.0262	0.0000	0.0000	0.0000;
	144	1	0	0	0	0	1	1.0002	50.480518	230	2	1.06	0.94	40.0262	0.0000	0.0000	0.0000;
	145	1	0	0	0	-103	1	0.9973	54.382814	230	2	1.06	0.94	40.0262	0.0000	0.0000	0.0000;
	146	1	299.9	95.7	0	0	1	0.9715	14.888418	230	2	1.06	0.94	40.0262	0.0000	0.0000	0.0000;
	147	1	0	0	0	0	1	1.0024	17.204888	230	2	1.06	0.94	40.0262	0.0000	0.0000	0.0000;
	148	1	0	0	0	0	1	0.9879	15.32452	230	2	1.06	0.94	40.0262	0.0000	0.0000	0.0000;
	149	2	481.8	205	0	0	1	0.929	21.420718	115	2	1.06	0.94	40.0262	0.0000	0.0000	0.0000;
	150	2	763.6	291.1	0	0	1	0.9829	12.307896	115	2	1.06	0.94	40.0262	0.0000	0.0000	0.0000;
	151	1	26.5	0	0	0	1	1.0244	16.870026	115	2	1.06	0.94	40.0262	0.0000	0.0000	0.0000;
	152	1	163.5	43	0	53	1	0.9837	10.618441	115	2	1.06	0.94	40.0262	0.0000	0.0000	0.0000;
	153	1	0	0	0	0	1	1.0622	20.681312	115	2	1.06	0.94	40.0262	0.0000	0.0000	0.0000;
	154	1	176	83	0	0	1	0.973	15.373503	115	2	1.06	0.94	40.0262	0.0000	0.0000	0.0000;
	155	2	5	4	0	0	1	1.0522	28.216366	115	2	1.06	0.94	40.0262	0.0000	0.0000	0.0000;
	156	2	28	12	0	0	1	1.0077	23.454158	115	2	1.06	0.94	40.0262	0.0000	0.0000	0.0000;
	157	1	427.4	173.6	0	0	1	0.9397	15.865576	115	2	1.06	0.94	40.0262	0.0000	0.0000	0.0000;
	158	1	74	29	0	45	1	0.9699	13.501568	115	2	1.06	0.94	40.0262	0.0000	0.0000	0.0000;
	159	1	69.5	49.3	0	0	1	0.9793	19.430072	115	2	1.06	0.94	40.0262	0.0000	0.0000	0.0000;
	160	1	73.4	0	0	0	1	1.0518	21.749802	230	2	1.06	0.94	40.0262	0.0000	0.0000	0.0000;
	161	1	240.7	89	0	0	1	1.0447	18.655364	230	2	1.06	0.94	40.0262	0.0000	0.0000	0.0000;
	162	1	40	4	0	0	1	0.9717	32.053203	115	2	1.06	0.94	40.0262	0.0000	0.0000	0.0000;
	163	1	136.8	16.6	0	0	1	1.0386	16.021137	230	2	1.06	0.94	40.0262	0.0000	0.0000	0.0000;
	164	2	0	0	0	0	1	1.0522	18.832303	230	2	1.06	0.94	40.0262	0.0000	0.0000	0.0000;
	165	2	59.8	24.3	0	0	1	1.065	25.689516	230	2	1.06	0.94	40.0262	0.0000	0.0000	0.0000;
	166	2	59.8	24.3	0	0	1	1.065	24.83895	230	2	1.06	0.94	40.0262	0.0000	0.0000	0.0000;
	167	1	182.6	43.6	0	0	1	1.0533	22.413754	230	2	1.06	0.94	40.0262	0.0000	0.0000	0.0000;
	168	1	7	2	0	0	1	0.9975	-6.855357	66	3	1.06	0.94	40.0262	0.0000	0.0000	0.0000;
	169	2	0	0	0	-150	1	1.0551	-0.7115254	345	3	1.06	0.94	40.0262	0.0000	0.0000	0.0000;
	170	2	489	53	0	0	1	1.0435	31.617258	230	3	1.06	0.94	40.0262	0.0000	0.0000	0.0000;
	171	1	800	72	0	0	1	0.9374	8.8042494	230	3	1.06	0.94	40.0262	0.0000	0.0000	0.0000;
	172	1	0	0	0	0	1	0.9897	-8.2881872	66	3	1.06	0.94	40.0262	0.0000	0.0000	0.0000;
	173	1	0	0	0	0	1	1.0489	0.17821769	345	3	1.06	0.94	40.0262	0.0000	0.0000	0.0000;
	174	1	0	0	0	0	1	1.0357	-1.4626886	345	3	1.06	0.94	40.0262	0.0000	0.0000	0.0000;
	175	1	10	3	0	0	1	0.9695	-5.2807432	115	3	1.06	0.94	40.0262	0.0000	0.0000	0.0000;
	176	1	43	14	0	0	1	0.9907	-4.0101922	115	3	1.06	0.94	40.0262	0.0000	0.0000	0.0000;
	177	2	64	21	0	0	1	1.015	-0.84626478	115	3	1.06	0.94	40.0262	0.0000	0.0000	0.0000;
	178	1	35	12	0	0	1	0.9528	-6.3560823	115	3	1.06	0.94	40.0262	0.0000	0.0000	0.0000;
	179	1	27	12	0	0	1	0.955	-6.1128873	115	3	1.06	0.94	40.0262	0.0000	0.0000	0.0000;
	180	1	41	14	0	0	1	0.9692	-10.173475	66	1	1.06	0.94	40.0262	0.0000	0.0000	0.0000;
	181	1	38	13	0	0	1	0.9908	-5.7398678	66	3	1.06	0.94	40.0262	0.0000	0.0000	0.0000;
	182	1	42	14	0	0	1	1.0033	-2.7900774	115	3	1.06	0.94	40.0262	0.0000	0.0000	0.0000;
	183	1	72	24	0	0	1	0.9718	-10.444585	66	3	1.06	0.94	40.0262	0.0000	0.0000	0.0000;
	184	1	0	-5	0	0	1	0.9838	-9.3077195	66	3	1.06	0.94	40.0262	0.0000	0.0000	0.0000;
	185	1	12	2	0	0	1	0.9992	-9.0688579	66	3	1.06	0.94	40.0262	0.0000	0.0000	0.0000;
	186	1	-21	-14.2	0	0	1	1.0137	-8.6500882	66	1	1.06	0.94	40.0262	0.0000	0.0000	0.0000;
	187	1	7	2	0	0	1	0.9929	-7.8445234	66	3	1.06	0.94	40.0262	0.0000	0.0000	0.0000;
	188	1	38	13	0	0	1	0.9999	-6.5066318	66	3	1.06	0.94	40.0262	0.0000	0.0000	0.0000;
	189	1	0	0	0	0	1	0.9788	-4.4943702	115	3	1.06	0.94	40.0262	0.0000	0.0000	0.0000;
	190	1	96	7	0	0	1	1.0017	-3.8634388	115	3	1.06	0.94	40.0262	0.0000	0.0000	0.0000;
	191	1	0	0	0	0	1	1.0132	-2.9981858	138	3	1.06	0.94	40.0262	0.0000	0.0000	0.0000;
	192	2	0	0	0	0	1	1.01	7.8842598	16.5	3	1.06	0.94	40.0262	0.0000	0.0000	0.0000;
	193	1	22	16	0	0	1	0.9919	1.9544206	138	3	1.06	0.94	40.0262	0.0000	0.0000	0.0000;
	194	1	47	26	0	0	1	0.9866	-0.74440468	138	3	1.06	0.94	40.0262	0.0000	0.0000	0.0000;
	195	1	176	105	0	0	1	0.9751	-2.9850192	138	3	1.06	0.94	40.0262	0.0000	0.0000	0.0000;
	196	1	100	75	0	0	1	1.0215	-2.4454735	138	3	1.06	0.94	40.0262	0.0000	0.0000	0.0000;
	197	1	131	96	0	0	1	1.0075	-2.8867202	138	3	1.06	0.94	40.0262	0.0000	0.0000	0.0000;
	198	1	0	0	0	0	1	1.0554	-1.3414681	345	3	1.06	0.94	40.0262	0.0000	0.0000	0.0000;
	199	2	285	100	0	0	1	1.008	-1.8349969	138	3	1.06	0.94	40.0262	0.0000	0.0000	0.0000;
	200	2	171	70	0	0	1	1	-2.4829834	138	3	1.06	0.94	40.0262	0.0000	0.0000	0.0000;
...
];

%% generator data
%	bus	Pg	Qg	Qmax	Qmin	Vg	mBase	status	Pmax	Pmin	Pc1	Pc2	Qc1min	Qc1max	Qc2min	Qc2max	ramp_agc	ramp_10	ramp_30	ramp_q	apf	mu_Pmax	mu_Pmin	mu_Qmax	mu_Qmin
mpc.gen = [
	8	1.30808	0	10	-10	1.0153	100	1	100	0	0	0	0	0	0	0	0	0	0	0	0	0.0000	0.0000	0.0000	0.0000;
	10	1.30808	0	20	-20	1.0205	100	1	100	0	0	0	0	0	0	0	0	0	0	0	0	0.0000	0.0000	0.0000	0.0000;
	19	1.30808	0	20	-20	1.001	100	1	100	0	0	0	0	0	0	0	0	0	0	0	0	0.0000	0.0000	0.0000	0.0000;
	55	1.30808	0	25	-25	0.9583	100	1	100	0	0	0	0	0	0	0	0	0	0	0	0	0.0000	0.0000	0.0000	0.0000;
	63	1.30808	0	35	12	0.9632	100	1	100	0	0	0	0	0	0	0	0	0	0	0	0	0.0000	0.0000	0.0000	0.0000;
	69	375.49	0	240	-240	1.025	100	1	475	0	0	0	0	0	0	0	0	0	0	0	0	0.0000	0.0000	0.0000	0.0000;
	76	155.203	0	96	-11	1.052	100	1	255	0	0	0	0	0	0	0	0	0	0	0	0	0.0000	0.0000	0.0000	0.0000;
	77	290.379	0	153	-153	1.052	100	1	390	0	0	0	0	0	0	0	0	0	0	0	0	0.0000	0.0000	0.0000	0.0000;
	80	68.0889	0	56	-30	1	100	1	168	0	0	0	0	0	0	0	0	0	0	0	0	0.0000	0.0000	0.0000	0.0000;
	88	117.153	0	77	-24	0.99	100	1	217	0	0	0	0	0	0	0	0	0	0	0	0	0.0000	0.0000	0.0000	0.0000;
	98	1932.52	0	1500	-500	1.0435	100	1	2030	0	0	0	0	0	0	0	0	0	0	0	0	0.0000	0.0000	0.0000	0.0000;
	103	240.314	0	120	-60	1.0233	100	1	340	0	0	0	0	0	0	0	0	0	0	0	0	0.0000	0.0000	0.0000	0.0000;
	104	1.30808	0	200	-25	1.0103	100	1	100	0	0	0	0	0	0	0	0	0	0	0	0	0.0000	0.0000	0.0000	0.0000;
	117	1.30808	0	350	-125	1.055	100	1	100	0	0	0	0	0	0	0	0	0	0	0	0	0.0000	0.0000	0.0000	0.0000;
	120	281.367	0	75	-50	1.051	100	1	381	0	0	0	0	0	0	0	0	0	0	0	0	0.0000	0.0000	0.0000	0.0000;
	122	696.911	0	300	-100	1.0435	100	1	796	0	0	0	0	0	0	0	0	0	0	0	0	0.0000	0.0000	0.0000	0.0000;
	125	84.1096	0	35	-15	1.0528	100	1	184	0	0	0	0	0	0	0	0	0	0	0	0	0.0000	0.0000	0.0000	0.0000;
	126	217.284	0	100	-50	1.0528	100	1	317	0	0	0	0	0	0	0	0	0	0	0	0	0.0000	0.0000	0.0000	0.0000;
	128	103.135	0	50	-25	1.0735	100	1	203	0	0	0	0	0	0	0	0	0	0	0	0	0.0000	0.0000	0.0000	0.0000;
	131	372.487	0	175	-50	1.0535	100	1	472	0	0	0	0	0	0	0	0	0	0	0	0	0.0000	0.0000	0.0000	0.0000;
	132	216.283	0	90	-50	1.0435	100	1	316	0	0	0	0	0	0	0	0	0	0	0	0	0.0000	0.0000	0.0000	0.0000;
	135	1.30808	0	15	-10	0.963	100	1	100	0	0	0	0	0	0	0	0	0	0	0	0	0.0000	0.0000	0.0000	0.0000;
	149	205.268	0	90	-40	0.929	100	1	305	0	0	0	0	0	0	0	0	0	0	0	0	0.0000	0.0000	0.0000	0.0000;
	150	1.30808	0	150	-50	0.9829	100	1	100	0	0	0	0	0	0	0	0	0	0	0	0	0.0000	0.0000	0.0000	0.0000;
	155	228.298	0	90	-45	1.0522	100	1	328	0	0	0	0	0	0	0	0	0	0	0	0	0.0000	0.0000	0.0000	0.0000;
	156	84.1096	0	35	-15	1.0077	100	1	184	0	0	0	0	0	0	0	0	0	0	0	0	0.0000	0.0000	0.0000	0.0000;
	164	200.262	0	80	-50	1.0522	100	1	300	0	0	0	0	0	0	0	0	0	0	0	0	0.0000	0.0000	0.0000	0.0000;
	165	1201.57	0	400	-100	1.065	100	1	1300	0	0	0	0	0	0	0	0	0	0	0	0	0.0000	0.0000	0.0000	0.0000;
	166	1201.57	0	400	-100	1.065	100	1	1300	0	0	0	0	0	0	0	0	0	0	0	0	0.0000	0.0000	0.0000	0.0000;
	169	475.622	0	300	-300	1.0551	100	1	575	0	0	0	0	0	0	0	0	0	0	0	0	0.0000	0.0000	0.0000	0.0000;
	170	1975.58	0	1000	-1000	1.0435	100	1	2073	0	0	0	0	0	0	0	0	0	0	0	0	0.0000	0.0000	0.0000	0.0000;
	177	424.555	0	260	-260	1.015	100	1	524	0	0	0	0	0	0	0	0	0	0	0	0	0.0000	0.0000	0.0000	0.0000;
	192	272.356	0	150	-150	1.01	100	1	372	0	0	0	0	0	0	0	0	0	0	0	0	0.0000	0.0000	0.0000	0.0000;
	199	100.131	0	60	-60	1.008	100	1	200	0	0	0	0	0	0	0	0	0	0	0	0	0.0000	0.0000	0.0000	0.0000;
	200	450.589	0	320	-320	1	100	1	550	0	0	0	0	0	0	0	0	0	0	0	0	0.0000	0.0000	0.0000	0.0000;
	201	250.327	0	300	-300	1.05	100	1	350	0	0	0	0	0	0	0	0	0	0	0	0	0.0000	0.0000	0.0000	0.0000;
	206	303.396	0	300	-300	1	100	1	403	0	0	0	0	0	0	0	0	0	0	0	0	0.0000	0.0000	0.0000	0.0000;
	209	345.451	0	250	-250	1.04	100	1	445	0	0	0	0	0	0	0	0	0	0	0	0	0.0000	0.0000	0.0000	0.0000;
	212	300.393	0	500	-500	1	100	1	400	0	0	0	0	0	0	0	0	0	0	0	0	0.0000	0.0000	0.0000	0.0000;
	215	600.784	0	300	-300	1.0165	100	1	700	0	0	0	0	0	0	0	0	0	0	0	0	0.0000	0.0000	0.0000	0.0000;
	217	250.327	0	200	-200	1.01	100	1	350	0	0	0	0	0	0	0	0	0	0	0	0	0.0000	0.0000	0.0000	0.0000;
	218	550.72	0	400	-400	1	100	1	650	0	0	0	0	0	0	0	0	0	0	0	0	0.0000	0.0000	0.0000	0.0000;
	220	576.183	0	600	-600	1.05	100	1	675.43	0	0	0	0	0	0	0	0	0	0	0	0	0.0000	0.0000	0.0000	0.0000;
	221	170.222	0	100	40	0.993	100	1	270	0	0	0	0	0	0	0	0	0	0	0	0	0.0000	0.0000	0.0000	0.0000;
	222	84.1096	0	80	40	1.01	100	1	184	0	0	0	0	0	0	0	0	0	0	0	0	0.0000	0.0000	0.0000	0.0000;
	247	467.61	0	210	-210	1.0507	100	1	567	0	0	0	0	0	0	0	0	0	0	0	0	0.0000	0.0000	0.0000	0.0000;
	248	623.814	0	280	-280	1.0507	100	1	723	0	0	0	0	0	0	0	0	0	0	0	0	0.0000	0.0000	0.0000	0.0000;
	249	1211.58	0	420	-420	1.0323	100	1	1310	0	0	0	0	0	0	0	0	0	0	0	0	0.0000	0.0000	0.0000	0.0000;
	250	234.306	0	100	-100	1.0145	100	1	334	0	0	0	0	0	0	0	0	0	0	0	0	0.0000	0.0000	0.0000	0.0000;
	251	372.487	0	224	-224	1.0507	100	1	472	0	0	0	0	0	0	0	0	0	0	0	0	0.0000	0.0000	0.0000	0.0000;
	252	330.432	0	350	0	1.0507	100	1	430	0	0	0	0	0	0	0	0	0	0	0	0	0.0000	0.0000	0.0000	0.0000;
	253	185.242	0	120	0	1.0507	100	1	285	0	0	0	0	0	0	0	0	0	0	0	0	0.0000	0.0000	0.0000	0.0000;
	254	410.537	0	224	-224	1.029	100	1	510	0	0	0	0	0	0	0	0	0	0	0	0	0.0000	0.0000	0.0000	0.0000;
	255	500.654	0	200	-200	1.05	100	1	600	0	0	0	0	0	0	0	0	0	0	0	0	0.0000	0.0000	0.0000	0.0000;
	256	37.0484	0	42	0	1.0145	100	1	137	0	0	0	0	0	0	0	0	0	0	0	0	0.0000	0.0000	0.0000	0.0000;
	257	1.30808	0	10	0	1.0507	100	1	2399.01	0	0	0	0	0	0	0	0	0	0	0	0	0.0000	0.0000	0.0000	0.0000;
	258	45.0589	0	25	0	0.9967	100	1	145	0	0	0	0	0	0	0	0	0	0	0	0	0.0000	0.0000	0.0000	0.0000;
	259	165.216	0	90	-90	1.0212	100	1	265	0	0	0	0	0	0	0	0	0	0	0	0	0.0000	0.0000	0.0000	0.0000;
	260	400.523	0	150	-150	1.0145	100	1	500	0	0	0	0	0	0	0	0	0	0	0	0	0.0000	0.0000	0.0000	0.0000;
	261	400.523	0	150	0	1.0017	100	1	500	0	0	0	0	0	0	0	0	0	0	0	0	0.0000	0.0000	0.0000	0.0000;
	262	116.152	0	87	0	0.9893	100	1	216	0	0	0	0	0	0	0	0	0	0	0	0	0.0000	0.0000	0.0000	0.0000;
	263	1293.69	0	600	-100	1.0507	100	1	1392	0	0	0	0	0	0	0	0	0	0	0	0	0.0000	0.0000	0.0000	0.0000;
	264	700.916	0	325	-125	1.0507	100	1	800	0	0	0	0	0	0	0	0	0	0	0	0	0.0000	0.0000	0.0000	0.0000;
	265	553.723	0	300	-200	1.0145	100	1	653	0	0	0	0	0	0	0	0	0	0	0	0	0.0000	0.0000	0.0000	0.0000;
	267	1.30808	0	2	-2	0.9945	100	1	100	0	0	0	0	0	0	0	0	0	0	0	0	0.0000	0.0000	0.0000	0.0000;
	292	1.30808	0	17.35	-17.35	1	100	1	100	0	0	0	0	0	0	0	0	0	0	0	0	0.0000	0.0000	0.0000	0.0000;
	294	1.30808	0	12.83	-12.8	1	100	1	100	0	0	0	0	0	0	0	0	0	0	0	0	0.0000	0.0000	0.0000	0.0000;
	295	50.0654	0	38	-38	1	100	1	150	0	0	0	0	0	0	0	0	0	0	0	0	0.0000	0.0000	0.0000	0.0000;
	296	8.01046	0	6	-6	1	100	1	108	0	0	0	0	0	0	0	0	0	0	0	0	0.0000	0.0000	0.0000	0.0000;
];

%% branch data
%	fbus	tbus	r	x	b	rateA	rateB	rateC	ratio	angle	status	angmin	angmax	Pf	Qf	Pt	Qt	mu_Sf	mu_St	mu_angmin	mu_angmax
mpc.branch = [
	31	266	6e-05	0.00046	0	9900	0	75	1	0	1	-360	360	74.1399	0.0000	-74.1399	0.0000	0.0000	0.0000	0.0000	0.0000;
	266	270	0.0008	0.00348	0	9900	0	0	1	0	1	-360	360	32.8880	0.0000	-32.8880	0.0000	0.0000	0.0000	0.0000	0.0000;
	266	271	0.02439	0.43682	0	9900	0	0	1	0	1	-360	360	25.8400	0.0000	-25.8400	0.0000	0.0000	0.0000	0.0000	0.0000;
	266	273	0.03624	0.64898	0	9900	0	0	1	0	1	-360	360	15.4119	0.0000	-15.4119	0.0000	0.0000	0.0000	0.0000	0.0000;
	270	292	0.01578	0.37486	0	9900	0	0	1	0	1	-360	360	34.5019	0.0000	-34.5019	0.0000	0.0000	0.0000	0.0000	0.0000;
	270	293	0.01578	0.37486	0	9900	0	0	1	0	1	-360	360	30.0000	0.0000	-30.0000	0.0000	0.0000	0.0000	0.0000	0.0000;
	270	294	0.01602	0.38046	0	9900	0	0	1	0	1	-360	360	26.4619	0.0000	-26.4619	0.0000	0.0000	0.0000	0.0000	0.0000;
	270	295	0	0.152	0	9900	0	0	1	0	1	-360	360	-50.0654	0.0000	50.0654	0.0000	0.0000	0.0000	0.0000	0.0000;
	270	296	0	0.8	0	9900	0	0	1	0	1	-360	360	-8.0105	0.0000	8.0105	0.0000	0.0000	0.0000	0.0000	0.0000;
	271	272	0.05558	0.24666	0	9900	0	0	1	0	1	-360	360	13.4550	0.0000	-13.4550	0.0000	0.0000	0.0000	0.0000	0.0000;
	271	268	0.11118	0.49332	0	9900	0	0	1	0	1	-360	360	12.3850	0.0000	-12.3850	0.0000	0.0000	0.0000	0.0000	0.0000;
	273	267	0.07622	0.43286	0	9900	0	0	1	0	1	-360	360	11.6119	0.0000	-11.6119	0.0000	0.0000	0.0000	0.0000	0.0000;
	267	274	0.0537	0.07026	0	9900	0	0	1	0	1	-360	360	7.3000	0.0000	-7.3000	0.0000	0.0000	0.0000	0.0000	0.0000;
	274	276	1.1068	0.95278	0	9900	0	0	1	0	1	-360	360	0.9400	0.0000	-0.9400	0.0000	0.0000	0.0000	0.0000	0.0000;
	274	275	0.44364	2.8152	0	9900	0	0	1	0	1	-360	360	1.6100	0.0000	-1.6100	0.0000	0.0000	0.0000	0.0000	0.0000;
	267	277	0.50748	3.2202	0	9900	0	0	1	0	1	-360	360	1.4200	0.0000	-1.4200	0.0000	0.0000	0.0000	0.0000	0.0000;
	276	278	0.66688	3.944	0	9900	0	0	1	0	1	-360	360	0.4700	0.0000	-0.4700	0.0000	0.0000	0.0000	0.0000	0.0000;
	276	279	0.6113	3.6152	0	9900	0	0	1	0	1	-360	360	0.4700	0.0000	-0.4700	0.0000	0.0000	0.0000	0.0000	0.0000;
	272	297	0.4412	2.9668	0	9900	0	0	1	0	1	-360	360	1.0700	0.0000	-1.0700	0.0000	0.0000	0.0000	0.0000	0.0000;
	272	298	0.30792	2.057	0	9900	0	0	1	0	1	-360	360	1.0700	0.0000	-1.0700	0.0000	0.0000	0.0000	0.0000	0.0000;
	272	268	0.0558	0.24666	0	9900	0	0	1	0	1	-360	360	11.3150	0.0000	-11.3150	0.0000	0.0000	0.0000	0.0000	0.0000;
	268	280	0.73633	4.6724	0	9900	0	0	1	0	1	-360	360	1.9400	0.0000	-1.9400	0.0000	0.0000	0.0000	0.0000	0.0000;
	268	281	0.76978	4.8846	0	9900	0	0	1	0	1	-360	360	1.4600	0.0000	-1.4600	0.0000	0.0000	0.0000	0.0000	0.0000;
	268	282	0.75732	4.8056	0	9900	0	0	1	0	1	-360	360	1.9900	0.0000	-1.9900	0.0000	0.0000	0.0000	0.0000	0.0000;
	268	291	0.07378	0.06352	0	9900	0	0	1	0	1	-360	360	4.3700	0.0000	-4.3700	0.0000	0.0000	0.0000	0.0000	0.0000;
	291	269	0.03832	0.02894	0	9900	0	0	1	0	1	-360	360	4.3700	0.0000	-4.3700	0.0000	0.0000	0.0000	0.0000	0.0000;
	269	288	0.36614	2.456	0	9900	0	0	1	0	1	-360	360	1.0600	0.0000	-1.0600	0.0000	0.0000	0.0000	0.0000	0.0000;
	269	289	1.0593	5.4536	0	9900	0	0	1	0	1	-360	360	0.8500	0.0000	-0.8500	0.0000	0.0000	0.0000	0.0000	0.0000;
	269	290	0.1567	1.6994	0	9900	0	0	1	0	1	-360	360	1.6000	0.0000	-1.6000	0.0000	0.0000	0.0000	0.0000	0.0000;
	268	283	0.13006	1.3912	0	9900	0	0	1	0	1	-360	360	1.6300	0.0000	-1.6300	0.0000	0.0000	0.0000	0.0000	0.0000;
	268	284	0.54484	3.4572	0	9900	0	0	1	0	1	-360	360	1.7500	0.0000	-1.7500	0.0000	0.0000	0.0000	0.0000	0.0000;
	268	285	0.15426	1.6729	0	9900	0	0	1	0	1	-360	360	3.0300	0.0000	-3.0300	0.0000	0.0000	0.0000	0.0000	0.0000;
	268	286	0.3849	2.5712	0	9900	0	0	1	0	1	-360	360	1.9600	0.0000	-1.9600	0.0000	0.0000	0.0000	0.0000	0.0000;
	268	287	0.4412	2.9668	0	9900	0	0	1	0	1	-360	360	2.7200	0.0000	-2.7200	0.0000	0.0000	0.0000	0.0000	0.0000;
	273	299	0.23552	0.99036	0	9900	0	0	1	0	1	-360	360	3.8000	0.0000	-3.8000	0.0000	0.0000	0.0000	0.0000	0.0000;
	294	300	0	0.75	0	9900	0	0	1	0	1	-360	360	1.2900	0.0000	-1.2900	0.0000	0.0000	0.0000	0.0000	0.0000;
	1	5	0.001	0.006	0	9900	0	0	1	0	1	-360	360	400.9091	0.0000	-400.9091	0.0000	0.0000	0.0000	0.0000	0.0000;
	2	6	0.001	0.009	0	9900	0	0	1	0	1	-360	360	148.1180	0.0000	-148.1180	0.0000	0.0000	0.0000	0.0000	0.0000;
	2	8	0.006	0.027	0.054	9900	0	0	1	0	1	-360	360	386.1480	0.0000	-386.1480	0.0000	0.0000	0.0000	0.0000	0.0000;
	3	7	0	0.003	0	9900	0	0	1	0	1	-360	360	228.3986	0.0000	-228.3986	0.0000	0.0000	0.0000	0.0000	0.0000;
	3	18	0.008	0.069	0.139	9900	0	0	1	0	1	-360	360	144.9277	0.0000	-144.9277	0.0000	0.0000	0.0000	0.0000	0.0000;
	3	129	0.001	0.007	0	9900	0	0	1	0	1	-360	360	25.2379	0.0000	-25.2379	0.0000	0.0000	0.0000	0.0000	0.0000;
	4	16	0.002	0.019	1.127	9900	0	0	1	0	1	-360	360	803.2676	0.0000	-803.2676	0.0000	0.0000	0.0000	0.0000	0.0000;
	5	9	0.006	0.029	0.018	9900	0	0	1	0	1	-360	360	123.0834	0.0000	-123.0834	0.0000	0.0000	0.0000	0.0000	0.0000;
	7	12	0.001	0.009	0.07	9900	0	0	1	0	1	-360	360	187.5504	0.0000	-187.5504	0.0000	0.0000	0.0000	0.0000	0.0000;
	7	110	0.001	0.007	0.014	9900	0	0	1	0	1	-360	360	-6.2080	0.0000	6.2080	0.0000	0.0000	0.0000	0.0000	0.0000;
	8	11	0.013	0.0595	0.033	9900	0	0	1	0	1	-360	360	-12.8380	0.0000	12.8380	0.0000	0.0000	0.0000	0.0000	0.0000;
	8	14	0.013	0.042	0.081	9900	0	0	1	0	1	-360	360	337.2941	0.0000	-337.2941	0.0000	0.0000	0.0000	0.0000	0.0000;
	9	11	0.006	0.027	0.013	9900	0	0	1	0	1	-360	360	27.0834	0.0000	-27.0834	0.0000	0.0000	0.0000	0.0000	0.0000;
	11	13	0.008	0.034	0.018	9900	0	0	1	0	1	-360	360	147.9801	0.0000	-147.9801	0.0000	0.0000	0.0000	0.0000	0.0000;
	12	20	0.002	0.015	0.118	9900	0	0	1	0	1	-360	360	425.9169	0.0000	-425.9169	0.0000	0.0000	0.0000	0.0000	0.0000;
	13	19	0.006	0.034	0.016	9900	0	0	1	0	1	-360	360	89.9801	0.0000	-89.9801	0.0000	0.0000	0.0000	0.0000	0.0000;
	14	15	0.014	0.042	0.097	9900	0	0	1	0	1	-360	360	177.2941	0.0000	-177.2941	0.0000	0.0000	0.0000	0.0000	0.0000;
	15	31	0.065	0.248	0.121	9900	0	0	1	0	1	-360	360	56.4043	0.0000	-56.4043	0.0000	0.0000	0.0000	0.0000	0.0000;
	15	74	0.099	0.248	0.035	9900	0	0	1	0	1	-360	360	26.5485	0.0000	-26.5485	0.0000	0.0000	0.0000	0.0000	0.0000;
	15	75	0.096	0.363	0.048	9900	0	0	1	0	1	-360	360	26.9630	0.0000	-26.9630	0.0000	0.0000	0.0000	0.0000	0.0000;
	16	36	0.002	0.022	1.28	9900	0	0	1	0	1	-360	360	513.3779	0.0000	-513.3779	0.0000	0.0000	0.0000	0.0000	0.0000;
	18	20	0.002	0.018	0.036	9900	0	0	1	0	1	-360	360	-68.7840	0.0000	68.7840	0.0000	0.0000	0.0000	0.0000	0.0000;
	18	72	0.013	0.08	0.151	9900	0	0	1	0	1	-360	360	213.7117	0.0000	-213.7117	0.0000	0.0000	0.0000	0.0000	0.0000;
	19	21	0.016	0.033	0.015	9900	0	0	1	0	1	-360	360	-18.5005	0.0000	18.5005	0.0000	0.0000	0.0000	0.0000	0.0000;
	19	26	0.069	0.186	0.098	9900	0	0	1	0	1	-360	360	22.3893	0.0000	-22.3893	0.0000	0.0000	0.0000	0.0000	0.0000;
	20	23	0.004	0.034	0.28	9900	0	0	1	0	1	-360	360	-237.4677	0.0000	237.4677	0.0000	0.0000	0.0000	0.0000	0.0000;
	21	22	0.052	0.111	0.05	9900	0	0	1	0	1	-360	360	-99.5005	0.0000	99.5005	0.0000	0.0000	0.0000	0.0000	0.0000;
	22	24	0.019	0.039	0.018	9900	0	0	1	0	1	-360	360	122.0107	0.0000	-122.0107	0.0000	0.0000	0.0000	0.0000	0.0000;
	23	231	0.007	0.068	0.134	9900	0	0	1	0	1	-360	360	115.8000	0.0000	-115.8000	0.0000	0.0000	0.0000	0.0000	0.0000;
	24	25	0.036	0.071	0.034	9900	0	0	1	0	1	-360	360	77.0107	0.0000	-77.0107	0.0000	0.0000	0.0000	0.0000	0.0000;
	25	26	0.045	0.12	0.065	9900	0	0	1	0	1	-360	360	46.6107	0.0000	-46.6107	0.0000	0.0000	0.0000	0.0000	0.0000;
	25	232	0.043	0.13	0.014	9900	0	0	1	0	1	-360	360	2.4000	0.0000	-2.4000	0.0000	0.0000	0.0000	0.0000	0.0000;
	27	28	0	0.063	0	9900	0	0	1	0	1	-360	360	-177.1185	0.0000	177.1185	0.0000	0.0000	0.0000	0.0000	0.0000;
	27	32	0.0025	0.012	0.013	9900	0	0	1	0	1	-360	360	110.9655	0.0000	-110.9655	0.0000	0.0000	0.0000	0.0000	0.0000;
	27	34	0.006	0.029	0.02	9900	0	0	1	0	1	-360	360	55.8269	0.0000	-55.8269	0.0000	0.0000	0.0000	0.0000	0.0000;
	27	35	0.007	0.043	0.026	9900	0	0	1	0	1	-360	360	-44.6739	0.0000	44.6739	0.0000	0.0000	0.0000	0.0000	0.0000;
	28	36	0.001	0.008	0.042	9900	0	0	1	0	1	-360	360	-177.1185	0.0000	177.1185	0.0000	0.0000	0.0000	0.0000	0.0000;
	29	60	0.012	0.06	0.008	9900	0	0	1	0	1	-360	360	47.0218	0.0000	-47.0218	0.0000	0.0000	0.0000	0.0000	0.0000;
	29	63	0.006	0.014	0.002	9900	0	0	1	0	1	-360	360	113.6886	0.0000	-113.6886	0.0000	0.0000	0.0000	0.0000	0.0000;
	29	64	0.01	0.029	0.003	9900	0	0	1	0	1	-360	360	-50.9153	0.0000	50.9153	0.0000	0.0000	0.0000	0.0000	0.0000;
	30	73	0.004	0.027	0.043	9900	0	0	1	0	1	-360	360	-109.7951	0.0000	109.7951	0.0000	0.0000	0.0000	0.0000	0.0000;
	31	32	0.008	0.047	0.008	9900	0	0	1	0	1	-360	360	4.1964	0.0000	-4.1964	0.0000	0.0000	0.0000	0.0000	0.0000;
	31	34	0.022	0.064	0.007	9900	0	0	1	0	1	-360	360	7.5722	0.0000	-7.5722	0.0000	0.0000	0.0000	0.0000	0.0000;
	31	35	0.01	0.036	0.02	9900	0	0	1	0	1	-360	360	-84.8704	0.0000	84.8704	0.0000	0.0000	0.0000	0.0000	0.0000;
	31	43	0.017	0.081	0.048	9900	0	0	1	0	1	-360	360	32.5931	0.0000	-32.5931	0.0000	0.0000	0.0000	0.0000	0.0000;
	31	74	0.102	0.254	0.033	9900	0	0	1	0	1	-360	360	-29.1506	0.0000	29.1506	0.0000	0.0000	0.0000	0.0000	0.0000;
	31	75	0.047	0.127	0.016	9900	0	0	1	0	1	-360	360	-33.0763	0.0000	33.0763	0.0000	0.0000	0.0000	0.0000	0.0000;
	32	35	0.008	0.037	0.02	9900	0	0	1	0	1	-360	360	-87.9072	0.0000	87.9072	0.0000	0.0000	0.0000	0.0000	0.0000;
	32	37	0.032	0.087	0.04	9900	0	0	1	0	1	-360	360	48.0691	0.0000	-48.0691	0.0000	0.0000	0.0000	0.0000	0.0000;
	33	36	0.0006	0.0064	0.404	9900	0	0	1	0	1	-360	360	500.6540	0.0000	-500.6540	0.0000	0.0000	0.0000	0.0000	0.0000;
	34	42	0.026	0.154	0.022	9900	0	0	1	0	1	-360	360	17.3991	0.0000	-17.3991	0.0000	0.0000	0.0000	0.0000	0.0000;
	35	36	0	0.029	0	9900	0	0	1	0	1	-360	360	-367.3943	0.0000	367.3943	0.0000	0.0000	0.0000	0.0000	0.0000;
	35	43	0.065	0.191	0.02	9900	0	0	1	0	1	-360	360	29.8187	0.0000	-29.8187	0.0000	0.0000	0.0000	0.0000	0.0000;
	35	44	0.031	0.089	0.036	9900	0	0	1	0	1	-360	360	34.1241	0.0000	-34.1241	0.0000	0.0000	0.0000	0.0000	0.0000;
	36	40	0.002	0.014	0.806	9900	0	0	1	0	1	-360	360	469.5192	0.0000	-469.5192	0.0000	0.0000	0.0000	0.0000	0.0000;
	37	38	0.026	0.072	0.035	9900	0	0	1	0	1	-360	360	-16.5513	0.0000	16.5513	0.0000	0.0000	0.0000	0.0000	0.0000;
	37	42	0.095	0.262	0.032	9900	0	0	1	0	1	-360	360	-4.6380	0.0000	4.6380	0.0000	0.0000	0.0000	0.0000	0.0000;
	37	46	0.013	0.039	0.016	9900	0	0	1	0	1	-360	360	30.2585	0.0000	-30.2585	0.0000	0.0000	0.0000	0.0000	0.0000;
	38	41	0.027	0.084	0.039	9900	0	0	1	0	1	-360	360	107.6611	0.0000	-107.6611	0.0000	0.0000	0.0000	0.0000	0.0000;
	38	47	0.028	0.084	0.037	9900	0	0	1	0	1	-360	360	-5.4328	0.0000	5.4328	0.0000	0.0000	0.0000	0.0000	0.0000;
	39	52	0.007	0.041	0.312	9900	0	0	1	0	1	-360	360	-263.9719	0.0000	263.9719	0.0000	0.0000	0.0000	0.0000	0.0000;
	39	62	0.009	0.054	0.411	9900	0	0	1	0	1	-360	360	215.3085	0.0000	-215.3085	0.0000	0.0000	0.0000	0.0000	0.0000;
	40	68	0.005	0.042	0.69	9900	0	0	1	0	1	-360	360	241.4515	0.0000	-241.4515	0.0000	0.0000	0.0000	0.0000	0.0000;
	41	61	0.052	0.145	0.073	9900	0	0	1	0	1	-360	360	21.9831	0.0000	-21.9831	0.0000	0.0000	0.0000	0.0000	0.0000;
	41	92	0.043	0.118	0.013	9900	0	0	1	0	1	-360	360	27.6780	0.0000	-27.6780	0.0000	0.0000	0.0000	0.0000	0.0000;
	42	87	0.025	0.062	0.007	9900	0	0	1	0	1	-360	360	-28.2389	0.0000	28.2389	0.0000	0.0000	0.0000	0.0000	0.0000;
	43	44	0.031	0.094	0.043	9900	0	0	1	0	1	-360	360	-28.2801	0.0000	28.2801	0.0000	0.0000	0.0000	0.0000	0.0000;
	44	45	0.037	0.109	0.049	9900	0	0	1	0	1	-360	360	10.8440	0.0000	-10.8440	0.0000	0.0000	0.0000	0.0000	0.0000;
	45	48	0.027	0.08	0.036	9900	0	0	1	0	1	-360	360	-50.1560	0.0000	50.1560	0.0000	0.0000	0.0000	0.0000	0.0000;
	46	47	0.025	0.073	0.035	9900	0	0	1	0	1	-360	360	-38.7415	0.0000	38.7415	0.0000	0.0000	0.0000	0.0000	0.0000;
	47	48	0.035	0.103	0.047	9900	0	0	1	0	1	-360	360	-54.1744	0.0000	54.1744	0.0000	0.0000	0.0000	0.0000	0.0000;
	48	49	0.065	0.169	0.082	9900	0	0	1	0	1	-360	360	-81.2715	0.0000	81.2715	0.0000	0.0000	0.0000	0.0000	0.0000;
	49	50	0.046	0.08	0.036	9900	0	0	1	0	1	-360	360	-38.8445	0.0000	38.8445	0.0000	0.0000	0.0000	0.0000	0.0000;
	49	55	0.159	0.537	0.071	9900	0	0	1	0	1	-360	360	24.7888	0.0000	-24.7888	0.0000	0.0000	0.0000	0.0000	0.0000;
	50	51	0.009	0.026	0.005	9900	0	0	1	0	1	-360	360	-52.8445	0.0000	52.8445	0.0000	0.0000	0.0000	0.0000	0.0000;
	51	53	0.002	0.013	0.015	9900	0	0	1	0	1	-360	360	-270.8445	0.0000	270.8445	0.0000	0.0000	0.0000	0.0000	0.0000;
	52	54	0.009	0.065	0.485	9900	0	0	1	0	1	-360	360	-263.9719	0.0000	263.9719	0.0000	0.0000	0.0000	0.0000	0.0000;
	54	56	0.016	0.105	0.203	9900	0	0	1	0	1	-360	360	189.2031	0.0000	-189.2031	0.0000	0.0000	0.0000	0.0000	0.0000;
	54	123	0.001	0.007	0.013	9900	0	0	1	0	1	-360	360	-149.9731	0.0000	149.9731	0.0000	0.0000	0.0000	0.0000	0.0000;
	55	236	0.0265	0.172	0.026	9900	0	0	1	0	1	-360	360	145.3000	0.0000	-145.3000	0.0000	0.0000	0.0000	0.0000	0.0000;
	57	190	0.051	0.232	0.028	9900	0	0	1	0	1	-360	360	-29.0590	0.0000	29.0590	0.0000	0.0000	0.0000	0.0000	0.0000;
	57	66	0.051	0.157	0.023	9900	0	0	1	0	1	-360	360	-14.5266	0.0000	14.5266	0.0000	0.0000	0.0000	0.0000	0.0000;
	58	59	0.032	0.1	0.062	9900	0	0	1	0	1	-360	360	-84.1000	0.0000	84.1000	0.0000	0.0000	0.0000	0.0000	0.0000;
	58	237	0.02	0.1234	0.028	9900	0	0	1	0	1	-360	360	28.1000	0.0000	-28.1000	0.0000	0.0000	0.0000	0.0000	0.0000;
	59	60	0.036	0.131	0.068	9900	0	0	1	0	1	-360	360	-25.4224	0.0000	25.4224	0.0000	0.0000	0.0000	0.0000	0.0000;
	59	61	0.034	0.099	0.047	9900	0	0	1	0	1	-360	360	-58.5259	0.0000	58.5259	0.0000	0.0000	0.0000	0.0000	0.0000;
	60	64	0.018	0.087	0.011	9900	0	0	1	0	1	-360	360	-49.4006	0.0000	49.4006	0.0000	0.0000	0.0000	0.0000	0.0000;
	60	238	0.0256	0.193	0	9900	0	0	1	0	1	-360	360	14.0000	0.0000	-14.0000	0.0000	0.0000	0.0000	0.0000	0.0000;
	61	63	0.021	0.057	0.03	9900	0	0	1	0	1	-360	360	21.6501	0.0000	-21.6501	0.0000	0.0000	0.0000	0.0000	0.0000;
	61	66	0.018	0.052	0.018	9900	0	0	1	0	1	-360	360	-30.5927	0.0000	30.5927	0.0000	0.0000	0.0000	0.0000	0.0000;
	62	73	0.004	0.027	0.05	9900	0	0	1	0	1	-360	360	-86.7918	0.0000	86.7918	0.0000	0.0000	0.0000	0.0000	0.0000;
	62	240	0.0286	0.2013	0.379	9900	0	0	1	0	1	-360	360	50.5000	0.0000	-50.5000	0.0000	0.0000	0.0000	0.0000	0.0000;
	63	64	0.016	0.043	0.004	9900	0	0	1	0	1	-360	360	-71.3532	0.0000	71.3532	0.0000	0.0000	0.0000	0.0000	0.0000;
	64	65	0.001	0.006	0.007	9900	0	0	1	0	1	-360	360	-257.2668	0.0000	257.2668	0.0000	0.0000	0.0000	0.0000	0.0000;
	64	67	0.014	0.07	0.038	9900	0	0	1	0	1	-360	360	-6.9023	0.0000	6.9023	0.0000	0.0000	0.0000	0.0000	0.0000;
	64	239	0.0891	0.2676	0.029	9900	0	0	1	0	1	-360	360	-11.1000	0.0000	11.1000	0.0000	0.0000	0.0000	0.0000	0.0000;
	64	241	0.0782	0.2127	0.022	9900	0	0	1	0	1	-360	360	29.6000	0.0000	-29.6000	0.0000	0.0000	0.0000	0.0000	0.0000;
	65	66	0.006	0.022	0.011	9900	0	0	1	0	1	-360	360	81.2232	0.0000	-81.2232	0.0000	0.0000	0.0000	0.0000	0.0000;
	65	69	0	0.036	0	9900	0	0	1	0	1	-360	360	-338.4901	0.0000	338.4901	0.0000	0.0000	0.0000	0.0000	0.0000;
	66	190	0.099	0.375	0.051	9900	0	0	1	0	1	-360	360	-11.8960	0.0000	11.8960	0.0000	0.0000	0.0000	0.0000	0.0000;
	67	190	0.022	0.107	0.058	9900	0	0	1	0	1	-360	360	-34.9023	0.0000	34.9023	0.0000	0.0000	0.0000	0.0000	0.0000;
	68	173	0.0035	0.033	0.53	9900	0	0	1	0	1	-360	360	-20.9604	0.0000	20.9604	0.0000	0.0000	0.0000	0.0000	0.0000;
	68	174	0.0035	0.033	0.53	9900	0	0	1	0	1	-360	360	65.8251	0.0000	-65.8251	0.0000	0.0000	0.0000	0.0000	0.0000;
	70	71	0.008	0.064	0.128	9900	0	0	1	0	1	-360	360	-98.1991	0.0000	98.1991	0.0000	0.0000	0.0000	0.0000	0.0000;
	71	72	0.012	0.093	0.183	9900	0	0	1	0	1	-360	360	-133.3815	0.0000	133.3815	0.0000	0.0000	0.0000	0.0000	0.0000;
	71	234	0.006	0.048	0.092	9900	0	0	1	0	1	-360	360	-14.9000	0.0000	14.9000	0.0000	0.0000	0.0000	0.0000	0.0000;
	74	76	0.047	0.119	0.014	9900	0	0	1	0	1	-360	360	-46.8022	0.0000	46.8022	0.0000	0.0000	0.0000	0.0000	0.0000;
	75	77	0.032	0.174	0.024	9900	0	0	1	0	1	-360	360	-72.1133	0.0000	72.1133	0.0000	0.0000	0.0000	0.0000	0.0000;
	76	78	0.1	0.253	0.031	9900	0	0	1	0	1	-360	360	-2.0421	0.0000	2.0421	0.0000	0.0000	0.0000	0.0000	0.0000;
	76	79	0.022	0.077	0.039	9900	0	0	1	0	1	-360	360	93.0427	0.0000	-93.0427	0.0000	0.0000	0.0000	0.0000	0.0000;
	77	84	0.019	0.144	0.017	9900	0	0	1	0	1	-360	360	70.5048	0.0000	-70.5048	0.0000	0.0000	0.0000	0.0000	0.0000;
	77	86	0.017	0.092	0.012	9900	0	0	1	0	1	-360	360	131.9609	0.0000	-131.9609	0.0000	0.0000	0.0000	0.0000	0.0000;
	78	79	0.278	0.427	0.043	9900	0	0	1	0	1	-360	360	17.9881	0.0000	-17.9881	0.0000	0.0000	0.0000	0.0000	0.0000;
	79	82	0.022	0.053	0.007	9900	0	0	1	0	1	-360	360	40.2683	0.0000	-40.2683	0.0000	0.0000	0.0000	0.0000	0.0000;
	79	83	0.038	0.092	0.012	9900	0	0	1	0	1	-360	360	37.3076	0.0000	-37.3076	0.0000	0.0000	0.0000	0.0000	0.0000;
	79	84	0.048	0.122	0.015	9900	0	0	1	0	1	-360	360	-6.4451	0.0000	6.4451	0.0000	0.0000	0.0000	0.0000	0.0000;
	80	82	0.024	0.064	0.007	9900	0	0	1	0	1	-360	360	-6.1083	0.0000	6.1083	0.0000	0.0000	0.0000	0.0000	0.0000;
	80	83	0.034	0.121	0.015	9900	0	0	1	0	1	-360	360	7.4971	0.0000	-7.4971	0.0000	0.0000	0.0000	0.0000	0.0000;
	81	87	0.053	0.135	0.017	9900	0	0	1	0	1	-360	360	-35.5848	0.0000	35.5848	0.0000	0.0000	0.0000	0.0000	0.0000;
	81	88	0.002	0.004	0.002	9900	0	0	1	0	1	-360	360	-20.6002	0.0000	20.6002	0.0000	0.0000	0.0000	0.0000	0.0000;
	81	89	0.045	0.354	0.044	9900	0	0	1	0	1	-360	360	27.3583	0.0000	-27.3583	0.0000	0.0000	0.0000	0.0000	0.0000;
	81	90	0.05	0.174	0.022	9900	0	0	1	0	1	-360	360	43.5259	0.0000	-43.5259	0.0000	0.0000	0.0000	0.0000	0.0000;
	82	83	0.016	0.038	0.004	9900	0	0	1	0	1	-360	360	34.1600	0.0000	-34.1600	0.0000	0.0000	0.0000	0.0000	0.0000;
	83	85	0.043	0.064	0.027	9900	0	0	1	0	1	-360	360	51.2472	0.0000	-51.2472	0.0000	0.0000	0.0000	0.0000	0.0000;
	84	86	0.019	0.062	0.008	9900	0	0	1	0	1	-360	360	32.0598	0.0000	-32.0598	0.0000	0.0000	0.0000	0.0000	0.0000;
	85	88	0.076	0.13	0.044	9900	0	0	1	0	1	-360	360	40.2472	0.0000	-40.2472	0.0000	0.0000	0.0000	0.0000	0.0000;
	85	233	0.044	0.124	0.015	9900	0	0	1	0	1	-360	360	2.4000	0.0000	-2.4000	0.0000	0.0000	0.0000	0.0000	0.0000;
	86	87	0.012	0.088	0.011	9900	0	0	1	0	1	-360	360	68.4237	0.0000	-68.4237	0.0000	0.0000	0.0000	0.0000	0.0000;
	86	90	0.157	0.4	0.047	9900	0	0	1	0	1	-360	360	45.9969	0.0000	-45.9969	0.0000	0.0000	0.0000	0.0000	0.0000;
	88	235	0.074	0.208	0.026	9900	0	0	1	0	1	-360	360	24.7000	0.0000	-24.7000	0.0000	0.0000	0.0000	0.0000	0.0000;
	89	90	0.07	0.184	0.021	9900	0	0	1	0	1	-360	360	-11.4745	0.0000	11.4745	0.0000	0.0000	0.0000	0.0000	0.0000;
	89	92	0.1	0.274	0.031	9900	0	0	1	0	1	-360	360	-1.4780	0.0000	1.4780	0.0000	0.0000	0.0000	0.0000	0.0000;
	89	93	0.109	0.393	0.036	9900	0	0	1	0	1	-360	360	9.6108	0.0000	-9.6108	0.0000	0.0000	0.0000	0.0000	0.0000;
	90	91	0.142	0.404	0.05	9900	0	0	1	0	1	-360	360	15.0483	0.0000	-15.0483	0.0000	0.0000	0.0000	0.0000	0.0000;
	91	93	0.017	0.042	0.006	9900	0	0	1	0	1	-360	360	-4.5517	0.0000	4.5517	0.0000	0.0000	0.0000	0.0000	0.0000;
	94	101	0.0036	0.0199	0.004	9900	0	0	1	0	1	-360	360	46.2551	0.0000	-46.2551	0.0000	0.0000	0.0000	0.0000	0.0000;
	95	99	0.002	0.1049	0.001	9900	0	0	1	0	1	-360	360	-59.7521	0.0000	59.7521	0.0000	0.0000	0.0000	0.0000	0.0000;
	96	97	0.0001	0.0018	0.017	9900	0	0	1	0	1	-360	360	-500.1063	0.0000	500.1063	0.0000	0.0000	0.0000	0.0000	0.0000;
	97	98	0	0.0271	0	9900	0	0	1	0	1	-360	360	-596.1838	0.0000	596.1838	0.0000	0.0000	0.0000	0.0000	0.0000;
	97	245	0	0.6163	0	9900	0	0	1	0	1	-360	360	31.4414	0.0000	-31.4414	0.0000	0.0000	0.0000	0.0000	0.0000;
	245	99	0	-0.3697	0	9900	0	0	1	0	1	-360	360	31.4414	0.0000	-31.4414	0.0000	0.0000	0.0000	0.0000	0.0000;
	97	100	0.0022	0.2915	0	9900	0	0	1	0	1	-360	360	50.5361	0.0000	-50.5361	0.0000	0.0000	0.0000	0.0000	0.0000;
	98	99	0	0.0339	0	9900	0	0	1	0	1	-360	360	705.3107	0.0000	-705.3107	0.0000	0.0000	0.0000	0.0000	0.0000;
	98	100	0	0.0582	0	9900	0	0	1	0	1	-360	360	530.7190	0.0000	-530.7190	0.0000	0.0000	0.0000	0.0000	0.0000;
	101	102	0.0808	0.2344	0.029	9900	0	0	1	0	1	-360	360	22.2772	0.0000	-22.2772	0.0000	0.0000	0.0000	0.0000	0.0000;
	101	104	0.0965	0.3669	0.054	9900	0	0	1	0	1	-360	360	18.2142	0.0000	-18.2142	0.0000	0.0000	0.0000	0.0000	0.0000;
	102	103	0.036	0.1076	0.117	9900	0	0	1	0	1	-360	360	-66.0551	0.0000	66.0551	0.0000	0.0000	0.0000	0.0000	0.0000;
	102	104	0.0476	0.1414	0.149	9900	0	0	1	0	1	-360	360	10.3324	0.0000	-10.3324	0.0000	0.0000	0.0000	0.0000	0.0000;
	104	105	0.0006	0.0197	0	9900	0	0	1	0	1	-360	360	-484.9454	0.0000	484.9454	0.0000	0.0000	0.0000	0.0000	0.0000;
	105	106	0.0059	0.0405	0.25	9900	0	0	1	0	1	-360	360	-98.2347	0.0000	98.2347	0.0000	0.0000	0.0000	0.0000	0.0000;
	105	108	0.0115	0.1106	0.185	9900	0	0	1	0	1	-360	360	-127.7809	0.0000	127.7809	0.0000	0.0000	0.0000	0.0000	0.0000;
	105	111	0.0198	0.1688	0.321	9900	0	0	1	0	1	-360	360	-150.8418	0.0000	150.8418	0.0000	0.0000	0.0000	0.0000	0.0000;
	105	136	0.005	0.05	0.33	9900	0	0	1	0	1	-360	360	-29.6881	0.0000	29.6881	0.0000	0.0000	0.0000	0.0000	0.0000;
	105	137	0.0077	0.0538	0.335	9900	0	0	1	0	1	-360	360	-48.1926	0.0000	48.1926	0.0000	0.0000	0.0000	0.0000	0.0000;
	105	148	0.0165	0.1157	0.171	9900	0	0	1	0	1	-360	360	-88.1073	0.0000	88.1073	0.0000	0.0000	0.0000	0.0000	0.0000;
	106	107	0.0059	0.0577	0.095	9900	0	0	1	0	1	-360	360	-165.2257	0.0000	165.2257	0.0000	0.0000	0.0000	0.0000	0.0000;
	106	113	0.0049	0.0336	0.208	9900	0	0	1	0	1	-360	360	-149.2098	0.0000	149.2098	0.0000	0.0000	0.0000	0.0000	0.0000;
	106	147	0.0059	0.0577	0.095	9900	0	0	1	0	1	-360	360	-164.5992	0.0000	164.5992	0.0000	0.0000	0.0000	0.0000	0.0000;
	107	109	0.0078	0.0773	0.126	9900	0	0	1	0	1	-360	360	-211.0218	0.0000	211.0218	0.0000	0.0000	0.0000	0.0000	0.0000;
	107	112	0.0026	0.0193	0.03	9900	0	0	1	0	1	-360	360	45.7961	0.0000	-45.7961	0.0000	0.0000	0.0000	0.0000	0.0000;
	108	109	0.0076	0.0752	0.122	9900	0	0	1	0	1	-360	360	-208.6628	0.0000	208.6628	0.0000	0.0000	0.0000	0.0000	0.0000;
	108	112	0.0021	0.0186	0.03	9900	0	0	1	0	1	-360	360	80.8820	0.0000	-80.8820	0.0000	0.0000	0.0000	0.0000	0.0000;
	109	111	0.0016	0.0164	0.026	9900	0	0	1	0	1	-360	360	265.9711	0.0000	-265.9711	0.0000	0.0000	0.0000	0.0000	0.0000;
	109	130	0.0017	0.0165	0.026	9900	0	0	1	0	1	-360	360	161.4026	0.0000	-161.4026	0.0000	0.0000	0.0000	0.0000	0.0000;
...
];

%%-----  OPF Data  -----%%
%% generator cost data
%	1	startup	shutdown	n	x1	y1	...	xn	yn
%	2	startup	shutdown	n	c(n-1)	...	c0
mpc.gencost = [
	2	0	0	3	0.01	40	0;
	2	0	0	3	0.01	40	0;
	2	0	0	3	0.01	40	0;
	2	0	0	3	0.01	40	0;
	2	0	0	3	0.01	40	0;
	2	0	0	3	0.0266667	20	0;
	2	0	0	3	0.0645161	20	0;
	2	0	0	3	0.0344828	20	0;
	2	0	0	3	0.147059	20	0;
	2	0	0	3	0.0854701	20	0;
	2	0	0	3	0.00518135	20	0;
	2	0	0	3	0.0416667	20	0;
	2	0	0	3	0.01	40	0;
	2	0	0	3	0.01	40	0;
	2	0	0	3	0.0355872	20	0;
	2	0	0	3	0.0143678	20	0;
	2	0	0	3	0.119048	20	0;
	2	0	0	3	0.0460829	20	0;
	2	0	0	3	0.0970874	20	0;
	2	0	0	3	0.0268817	20	0;
	2	0	0	3	0.0462963	20	0;
	2	0	0	3	0.01	40	0;
	2	0	0	3	0.0487805	20	0;
	2	0	0	3	0.01	40	0;
	2	0	0	3	0.0438596	20	0;
	2	0	0	3	0.119048	20	0;
	2	0	0	3	0.05	20	0;
	2	0	0	3	0.00833333	20	0;
	2	0	0	3	0.00833333	20	0;
	2	0	0	3	0.0210526	20	0;
	2	0	0	3	0.00506842	20	0;
	2	0	0	3	0.0235849	20	0;
	2	0	0	3	0.0367647	20	0;
	2	0	0	3	0.1	20	0;
	2	0	0	3	0.0222222	20	0;
	2	0	0	3	0.04	20	0;
	2	0	0	3	0.0330033	20	0;
	2	0	0	3	0.0289855	20	0;
	2	0	0	3	0.0333333	20	0;
	2	0	0	3	0.0166667	20	0;
	2	0	0	3	0.04	20	0;
	2	0	0	3	0.0181818	20	0;
	2	0	0	3	0.0173783	20	0;
	2	0	0	3	0.0588235	20	0;
	2	0	0	3	0.119048	20	0;
	2	0	0	3	0.0214133	20	0;
	2	0	0	3	0.0160514	20	0;
	2	0	0	3	0.00826446	20	0;
	2	0	0	3	0.042735	20	0;
	2	0	0	3	0.0268817	20	0;
	2	0	0	3	0.030303	20	0;
	2	0	0	3	0.0540541	20	0;
	2	0	0	3	0.0243902	20	0;
	2	0	0	3	0.02	20	0;
	2	0	0	3	0.27027	20	0;
	2	0	0	3	0.01	40	0;
	2	0	0	3	0.222222	20	0;
	2	0	0	3	0.0606061	20	0;
	2	0	0	3	0.025	20	0;
	2	0	0	3	0.025	20	0;
	2	0	0	3	0.0862069	20	0;
	2	0	0	3	0.00773994	20	0;
	2	0	0	3	0.0142857	20	0;
	2	0	0	3	0.0180832	20	0;
	2	0	0	3	0.01	40	0;
	2	0	0	3	0.01	40	0;
	2	0	0	3	0.01	40	0;
	2	0	0	3	0.2	20	0;
	2	0	0	3	1.25	20	0;
];
